L6/1726532/Trafos.dss
! ==========================================================
! TRANSFORMADORES DE DISTRIBUICAO — gerados de UNTRMT/EQTRMT
! Secundario 1F/2F: 3 enrolamentos com derivacao central
! Neutro no no 4, aterrado em _ATERRAMENTO.dss
! Kv de BT conforme TEN_LIN_SE da BDGD
! ==========================================================
New Transformer.324931419_1055836653 phases=3 windings=2 Xhl=4.900
~ wdg=1 bus=node_424357561.1.2.3 conn=delta Kv=13.8 Kva=300.0 %R=0.495
~ wdg=2 bus=node_447563933.1.2.3.4 conn=wye Kv=0.2200 Kva=300.0 %R=0.495
New Transformer.1856897485_1856897484 phases=3 windings=2 Xhl=4.900
~ wdg=1 bus=node_2177633585.1.2.3 conn=delta Kv=13.8 Kva=300.0 %R=0.495
~ wdg=2 bus=node_2177633534.1.2.3.4 conn=wye Kv=0.2200 Kva=300.0 %R=0.495
New Transformer.1716788560_1716788559 phases=3 windings=2 Xhl=4.900
~ wdg=1 bus=node_2042870589.1.2.3 conn=delta Kv=13.8 Kva=300.0 %R=0.495
~ wdg=2 bus=node_2042870632.1.2.3.4 conn=wye Kv=0.2200 Kva=300.0 %R=0.495
New Transformer.1524936849_1524936850 phases=3 windings=2 Xhl=4.900
~ wdg=1 bus=node_1840043462.1.2.3 conn=delta Kv=13.8 Kva=300.0 %R=0.495
~ wdg=2 bus=node_1840043500.1.2.3.4 conn=wye Kv=0.2200 Kva=300.0 %R=0.495
New Transformer.2027506754_2027506753 phases=3 windings=2 Xhl=4.900
~ wdg=1 bus=node_2344549936.1.2.3 conn=delta Kv=13.8 Kva=300.0 %R=0.495
~ wdg=2 bus=node_2344549946.1.2.3.4 conn=wye Kv=0.2200 Kva=300.0 %R=0.495
New Transformer.2573570483_2573570482 phases=3 windings=2 Xhl=3.840
~ wdg=1 bus=node_2725329138.1.2.3 conn=delta Kv=13.8 Kva=150.0 %R=0.565
~ wdg=2 bus=node_2725329149.1.2.3.4 conn=wye Kv=0.2200 Kva=150.0 %R=0.565
New Transformer.1820763422_1820763421 phases=3 windings=2 Xhl=3.840
~ wdg=1 bus=node_2143925530.1.2.3 conn=delta Kv=13.8 Kva=150.0 %R=0.565
~ wdg=2 bus=node_2143925644.1.2.3.4 conn=wye Kv=0.2200 Kva=150.0 %R=0.565
New Transformer.324637137_325345069 phases=3 windings=2 Xhl=3.840
~ wdg=1 bus=node_440651727.1.2.3 conn=delta Kv=13.8 Kva=150.0 %R=0.565
~ wdg=2 bus=node_419830761.1.2.3.4 conn=wye Kv=0.2200 Kva=150.0 %R=0.565
New Transformer.324486569_2013821691 phases=3 windings=2 Xhl=3.840
~ wdg=1 bus=node_2493650206.1.2.3 conn=delta Kv=13.8 Kva=150.0 %R=0.565
~ wdg=2 bus=node_423204864.1.2.3.4 conn=wye Kv=0.2200 Kva=150.0 %R=0.565
New Transformer.324636402_1135917614 phases=3 windings=2 Xhl=3.840
~ wdg=1 bus=node_439003204.1.2.3 conn=delta Kv=13.8 Kva=150.0 %R=0.565
~ wdg=2 bus=node_423390263.1.2.3.4 conn=wye Kv=0.2200 Kva=150.0 %R=0.565
New Transformer.324485982_2728278789 phases=3 windings=2 Xhl=3.840
~ wdg=1 bus=node_439002593.1.2.3 conn=delta Kv=13.8 Kva=150.0 %R=0.565
~ wdg=2 bus=node_420053848.1.2.3.4 conn=wye Kv=0.2200 Kva=150.0 %R=0.565
New Transformer.926508069_926508068 phases=3 windings=2 Xhl=3.840
~ wdg=1 bus=node_1185831347.1.2.3 conn=delta Kv=13.8 Kva=150.0 %R=0.565
~ wdg=2 bus=node_1185831394.1.2.3.4 conn=wye Kv=0.2200 Kva=150.0 %R=0.565
New Transformer.325062721_325346556 phases=3 windings=2 Xhl=3.840
~ wdg=1 bus=node_442170617.1.2.3 conn=delta Kv=13.8 Kva=150.0 %R=0.565
~ wdg=2 bus=node_404938539.1.2.3.4 conn=wye Kv=0.2200 Kva=150.0 %R=0.565
New Transformer.325061177_2567702746 phases=3 windings=2 Xhl=4.960
~ wdg=1 bus=node_439003085.1.2.3 conn=delta Kv=13.8 Kva=150.0 %R=0.305
~ wdg=2 bus=node_418776309.1.2.3.4 conn=wye Kv=0.2200 Kva=150.0 %R=0.305
New Transformer.325061004_325346607 phases=3 windings=2 Xhl=3.840
~ wdg=1 bus=node_441671587.1.2.3 conn=delta Kv=13.8 Kva=112.5 %R=0.565
~ wdg=2 bus=node_423177577.1.2.3.4 conn=wye Kv=0.2200 Kva=112.5 %R=0.565
New Transformer.325060707_325278463 phases=3 windings=2 Xhl=3.840
~ wdg=1 bus=node_441849933.1.2.3 conn=delta Kv=13.8 Kva=112.5 %R=0.565
~ wdg=2 bus=node_423192727.1.2.3.4 conn=wye Kv=0.2200 Kva=112.5 %R=0.565
New Transformer.324932704_325275838 phases=3 windings=2 Xhl=3.840
~ wdg=1 bus=node_441850169.1.2.3 conn=delta Kv=13.8 Kva=112.5 %R=0.565
~ wdg=2 bus=node_423192034.1.2.3.4 conn=wye Kv=0.2200 Kva=112.5 %R=0.565
New Transformer.324485679_325276529 phases=3 windings=2 Xhl=3.840
~ wdg=1 bus=node_424616169.1.2.3 conn=delta Kv=13.8 Kva=112.5 %R=0.565
~ wdg=2 bus=node_423407728.1.2.3.4 conn=wye Kv=0.2200 Kva=112.5 %R=0.565
New Transformer.325061252_325278451 phases=3 windings=2 Xhl=3.770
~ wdg=1 bus=node_441852568.1.2.3 conn=delta Kv=13.8 Kva=75.0 %R=0.670
~ wdg=2 bus=node_423176767.1.2.3.4 conn=wye Kv=0.2200 Kva=75.0 %R=0.670
New Transformer.325061288_325343598 phases=3 windings=2 Xhl=3.770
~ wdg=1 bus=node_441851284.1.2.3 conn=delta Kv=13.8 Kva=75.0 %R=0.670
~ wdg=2 bus=node_423390311.1.2.3.4 conn=wye Kv=0.2200 Kva=75.0 %R=0.670
New Transformer.325061448_325396523 phases=3 windings=2 Xhl=3.770
~ wdg=1 bus=node_441849934.1.2.3 conn=delta Kv=13.8 Kva=75.0 %R=0.670
~ wdg=2 bus=node_469699692.1.2.3.4 conn=wye Kv=0.2200 Kva=75.0 %R=0.670
New Transformer.325061805_325278427 phases=3 windings=2 Xhl=3.770
~ wdg=1 bus=node_441671322.1.2.3 conn=delta Kv=13.8 Kva=75.0 %R=0.670
~ wdg=2 bus=node_418125157.1.2.3.4 conn=wye Kv=0.2200 Kva=75.0 %R=0.670
New Transformer.325061795_325374259 phases=3 windings=2 Xhl=3.770
~ wdg=1 bus=node_424286141.1.2.3 conn=delta Kv=13.8 Kva=75.0 %R=0.670
~ wdg=2 bus=node_423192811.1.2.3.4 conn=wye Kv=0.2200 Kva=75.0 %R=0.670
New Transformer.325061429_325374084 phases=3 windings=2 Xhl=3.770
~ wdg=1 bus=node_441851064.1.2.3 conn=delta Kv=13.8 Kva=75.0 %R=0.670
~ wdg=2 bus=node_423192052.1.2.3.4 conn=wye Kv=0.2200 Kva=75.0 %R=0.670
New Transformer.325061879_325323985 phases=3 windings=2 Xhl=3.770
~ wdg=1 bus=node_441672251.1.2.3 conn=delta Kv=13.8 Kva=75.0 %R=0.670
~ wdg=2 bus=node_418117038.1.2.3.4 conn=wye Kv=0.2200 Kva=75.0 %R=0.670
New Transformer.325061908_325344163 phases=3 windings=2 Xhl=3.770
~ wdg=1 bus=node_442172999.1.2.3 conn=delta Kv=13.8 Kva=75.0 %R=0.670
~ wdg=2 bus=node_423689495.1.2.3.4 conn=wye Kv=0.2200 Kva=75.0 %R=0.670
New Transformer.325062236_325396520 phases=3 windings=2 Xhl=3.770
~ wdg=1 bus=node_441671757.1.2.3 conn=delta Kv=13.8 Kva=75.0 %R=0.670
~ wdg=2 bus=node_423193966.1.2.3.4 conn=wye Kv=0.2200 Kva=75.0 %R=0.670
New Transformer.325062735_1425376124 phases=3 windings=2 Xhl=3.770
~ wdg=1 bus=node_441849968.1.2.3 conn=delta Kv=13.8 Kva=75.0 %R=0.670
~ wdg=2 bus=node_448508038.1.2.3.4 conn=wye Kv=0.2200 Kva=75.0 %R=0.670
New Transformer.325062810_325397627 phases=3 windings=2 Xhl=3.770
~ wdg=1 bus=node_432479325.1.2.3 conn=delta Kv=13.8 Kva=75.0 %R=0.670
~ wdg=2 bus=node_423681200.1.2.3.4 conn=wye Kv=0.2200 Kva=75.0 %R=0.670
New Transformer.325062881_325346609 phases=3 windings=2 Xhl=3.770
~ wdg=1 bus=node_424286346.1.2.3 conn=delta Kv=13.8 Kva=75.0 %R=0.670
~ wdg=2 bus=node_423194335.1.2.3.4 conn=wye Kv=0.2200 Kva=75.0 %R=0.670
New Transformer.325062892_325325816 phases=3 windings=2 Xhl=3.770
~ wdg=1 bus=node_442172219.1.2.3 conn=delta Kv=13.8 Kva=75.0 %R=0.670
~ wdg=2 bus=node_423668522.1.2.3.4 conn=wye Kv=0.2200 Kva=75.0 %R=0.670
New Transformer.325063137_325325906 phases=3 windings=2 Xhl=3.770
~ wdg=1 bus=node_431129214.1.2.3 conn=delta Kv=13.8 Kva=75.0 %R=0.670
~ wdg=2 bus=node_423219926.1.2.3.4 conn=wye Kv=0.2200 Kva=75.0 %R=0.670
New Transformer.324286852_325618700 phases=3 windings=2 Xhl=3.770
~ wdg=1 bus=node_428232621.1.2.3 conn=delta Kv=13.8 Kva=75.0 %R=0.670
~ wdg=2 bus=node_410959759.1.2.3.4 conn=wye Kv=0.2200 Kva=75.0 %R=0.670
New Transformer.325060196_325275832 phases=3 windings=2 Xhl=3.770
~ wdg=1 bus=node_441851049.1.2.3 conn=delta Kv=13.8 Kva=75.0 %R=0.670
~ wdg=2 bus=node_423176956.1.2.3.4 conn=wye Kv=0.2200 Kva=75.0 %R=0.670
New Transformer.325060283_325063754 phases=3 windings=2 Xhl=3.770
~ wdg=1 bus=node_424416548.1.2.3 conn=delta Kv=13.8 Kva=75.0 %R=0.670
~ wdg=2 bus=node_423433333.1.2.3.4 conn=wye Kv=0.2200 Kva=75.0 %R=0.670
New Transformer.325060469_325396457 phases=3 windings=2 Xhl=3.770
~ wdg=1 bus=node_1099676337.1.2.3 conn=delta Kv=13.8 Kva=75.0 %R=0.670
~ wdg=2 bus=node_1099676241.1.2.3.4 conn=wye Kv=0.2200 Kva=75.0 %R=0.670
New Transformer.1042824228_1042824227 phases=3 windings=2 Xhl=3.770
~ wdg=1 bus=node_1309400171.1.2.3 conn=delta Kv=13.8 Kva=75.0 %R=0.670
~ wdg=2 bus=node_1309400030.1.2.3.4 conn=wye Kv=0.2200 Kva=75.0 %R=0.670
New Transformer.325060538_325322345 phases=3 windings=2 Xhl=3.770
~ wdg=1 bus=node_424417093.1.2.3 conn=delta Kv=13.8 Kva=75.0 %R=0.670
~ wdg=2 bus=node_423204888.1.2.3.4 conn=wye Kv=0.2200 Kva=75.0 %R=0.670
New Transformer.325060502_325324048 phases=3 windings=2 Xhl=3.770
~ wdg=1 bus=node_424286155.1.2.3 conn=delta Kv=13.8 Kva=75.0 %R=0.670
~ wdg=2 bus=node_423194260.1.2.3.4 conn=wye Kv=0.2200 Kva=75.0 %R=0.670
New Transformer.324902340_325647270 phases=3 windings=2 Xhl=3.770
~ wdg=1 bus=node_428025375.1.2.3 conn=delta Kv=13.8 Kva=75.0 %R=0.670
~ wdg=2 bus=node_410652620.1.2.3.4 conn=wye Kv=0.2200 Kva=75.0 %R=0.670
New Transformer.1071297401_2649432443 phases=3 windings=2 Xhl=3.770
~ wdg=1 bus=node_431129318.1.2.3 conn=delta Kv=13.8 Kva=75.0 %R=0.670
~ wdg=2 bus=node_423194704.1.2.3.4 conn=wye Kv=0.2200 Kva=75.0 %R=0.670
New Transformer.2271938370_2271938369 phases=3 windings=2 Xhl=3.770
~ wdg=1 bus=node_2509853196.1.2.3 conn=delta Kv=13.8 Kva=75.0 %R=0.670
~ wdg=2 bus=node_2509853232.1.2.3.4 conn=wye Kv=0.2200 Kva=75.0 %R=0.670
New Transformer.2267223491_2267223490 phases=3 windings=2 Xhl=3.770
~ wdg=1 bus=node_2481945349.1.2.3 conn=delta Kv=13.8 Kva=75.0 %R=0.670
~ wdg=2 bus=node_2481945412.1.2.3.4 conn=wye Kv=0.2200 Kva=75.0 %R=0.670
New Transformer.2305633289_2305633288 phases=3 windings=2 Xhl=3.770
~ wdg=1 bus=node_2578628669.1.2.3 conn=delta Kv=13.8 Kva=75.0 %R=0.670
~ wdg=2 bus=node_2578628602.1.2.3.4 conn=wye Kv=0.2200 Kva=75.0 %R=0.670
New Transformer.1089650038_1551688428 phases=3 windings=2 Xhl=3.770
~ wdg=1 bus=node_1357239534.1.2.3 conn=delta Kv=13.8 Kva=75.0 %R=0.670
~ wdg=2 bus=node_1357239553.1.2.3.4 conn=wye Kv=0.2200 Kva=75.0 %R=0.670
New Transformer.2329435160_2329435159 phases=3 windings=2 Xhl=3.770
~ wdg=1 bus=node_2568658605.1.2.3 conn=delta Kv=13.8 Kva=75.0 %R=0.670
~ wdg=2 bus=node_2568658616.1.2.3.4 conn=wye Kv=0.2200 Kva=75.0 %R=0.670
New Transformer.649703696_649703695 phases=3 windings=2 Xhl=3.770
~ wdg=1 bus=node_439002843.1.2.3 conn=delta Kv=13.8 Kva=75.0 %R=0.670
~ wdg=2 bus=node_446787642.1.2.3.4 conn=wye Kv=0.2200 Kva=75.0 %R=0.670
New Transformer.649201342_649201341 phases=3 windings=2 Xhl=3.770
~ wdg=1 bus=node_917932795.1.2.3 conn=delta Kv=13.8 Kva=75.0 %R=0.670
~ wdg=2 bus=node_917932714.1.2.3.4 conn=wye Kv=0.2200 Kva=75.0 %R=0.670
New Transformer.1087700422_1087700421 phases=3 windings=2 Xhl=3.770
~ wdg=1 bus=node_1355242538.1.2.3 conn=delta Kv=13.8 Kva=75.0 %R=0.670
~ wdg=2 bus=node_1355242566.1.2.3.4 conn=wye Kv=0.2200 Kva=75.0 %R=0.670
New Transformer.324792337_2216064696 phases=3 windings=2 Xhl=3.770
~ wdg=1 bus=node_441850274.1.2.3 conn=delta Kv=13.8 Kva=75.0 %R=0.670
~ wdg=2 bus=node_423192079.1.2.3.4 conn=wye Kv=0.2200 Kva=75.0 %R=0.670
New Transformer.324792345_2208477210 phases=3 windings=2 Xhl=3.770
~ wdg=1 bus=node_424698390.1.2.3 conn=delta Kv=13.8 Kva=75.0 %R=0.670
~ wdg=2 bus=node_420345522.1.2.3.4 conn=wye Kv=0.2200 Kva=75.0 %R=0.670
New Transformer.324792353_325346621 phases=3 windings=2 Xhl=3.770
~ wdg=1 bus=node_424698895.1.2.3 conn=delta Kv=13.8 Kva=75.0 %R=0.670
~ wdg=2 bus=node_469682335.1.2.3.4 conn=wye Kv=0.2200 Kva=75.0 %R=0.670
New Transformer.1139777955_1139777954 phases=3 windings=2 Xhl=3.770
~ wdg=1 bus=node_1409544312.1.2.3 conn=delta Kv=13.8 Kva=75.0 %R=0.670
~ wdg=2 bus=node_1409544342.1.2.3.4 conn=wye Kv=0.2200 Kva=75.0 %R=0.670
New Transformer.324792118_325278430 phases=3 windings=2 Xhl=3.770
~ wdg=1 bus=node_424356911.1.2.3 conn=delta Kv=13.8 Kva=75.0 %R=0.670
~ wdg=2 bus=node_418116519.1.2.3.4 conn=wye Kv=0.2200 Kva=75.0 %R=0.670
New Transformer.324587061_325558312 phases=3 windings=2 Xhl=3.770
~ wdg=1 bus=node_434930523.1.2.3 conn=delta Kv=13.8 Kva=75.0 %R=0.670
~ wdg=2 bus=node_413148701.1.2.3.4 conn=wye Kv=0.2200 Kva=75.0 %R=0.670
New Transformer.324792739_325325825 phases=3 windings=2 Xhl=3.770
~ wdg=1 bus=node_424285877.1.2.3 conn=delta Kv=13.8 Kva=75.0 %R=0.670
~ wdg=2 bus=node_423192793.1.2.3.4 conn=wye Kv=0.2200 Kva=75.0 %R=0.670
New Transformer.324792654_325322556 phases=3 windings=2 Xhl=3.770
~ wdg=1 bus=node_431128660.1.2.3 conn=delta Kv=13.8 Kva=75.0 %R=0.670
~ wdg=2 bus=node_418446756.1.2.3.4 conn=wye Kv=0.2200 Kva=75.0 %R=0.670
New Transformer.324792681_325324050 phases=3 windings=2 Xhl=3.770
~ wdg=1 bus=node_424286461.1.2.3 conn=delta Kv=13.8 Kva=75.0 %R=0.670
~ wdg=2 bus=node_423192736.1.2.3.4 conn=wye Kv=0.2200 Kva=75.0 %R=0.670
New Transformer.1172657097_1172657096 phases=3 windings=2 Xhl=3.770
~ wdg=1 bus=node_1444716325.1.2.3 conn=delta Kv=13.8 Kva=75.0 %R=0.670
~ wdg=2 bus=node_1444716396.1.2.3.4 conn=wye Kv=0.2200 Kva=75.0 %R=0.670
New Transformer.324792847_2151311219 phases=3 windings=2 Xhl=3.770
~ wdg=1 bus=node_424470646.1.2.3 conn=delta Kv=13.8 Kva=75.0 %R=0.670
~ wdg=2 bus=node_418117575.1.2.3.4 conn=wye Kv=0.2200 Kva=75.0 %R=0.670
New Transformer.324793196_325343716 phases=3 windings=2 Xhl=3.770
~ wdg=1 bus=node_440651362.1.2.3 conn=delta Kv=13.8 Kva=75.0 %R=0.670
~ wdg=2 bus=node_423191788.1.2.3.4 conn=wye Kv=0.2200 Kva=75.0 %R=0.670
New Transformer.324793171_325275785 phases=3 windings=2 Xhl=3.770
~ wdg=1 bus=node_441671261.1.2.3 conn=delta Kv=13.8 Kva=75.0 %R=0.670
~ wdg=2 bus=node_418119450.1.2.3.4 conn=wye Kv=0.2200 Kva=75.0 %R=0.670
New Transformer.324793471_325346539 phases=3 windings=2 Xhl=3.770
~ wdg=1 bus=node_424418133.1.2.3 conn=delta Kv=13.8 Kva=75.0 %R=0.670
~ wdg=2 bus=node_418116927.1.2.3.4 conn=wye Kv=0.2200 Kva=75.0 %R=0.670
New Transformer.324793399_1943412895 phases=3 windings=2 Xhl=3.770
~ wdg=1 bus=node_424286251.1.2.3 conn=delta Kv=13.8 Kva=75.0 %R=0.670
~ wdg=2 bus=node_423194908.1.2.3.4 conn=wye Kv=0.2200 Kva=75.0 %R=0.670
New Transformer.324793214_325324045 phases=3 windings=2 Xhl=3.770
~ wdg=1 bus=node_441850829.1.2.3 conn=delta Kv=13.8 Kva=75.0 %R=0.670
~ wdg=2 bus=node_423192688.1.2.3.4 conn=wye Kv=0.2200 Kva=75.0 %R=0.670
New Transformer.324793345_325344069 phases=3 windings=2 Xhl=3.770
~ wdg=1 bus=node_431128605.1.2.3 conn=delta Kv=13.8 Kva=75.0 %R=0.670
~ wdg=2 bus=node_423669128.1.2.3.4 conn=wye Kv=0.2200 Kva=75.0 %R=0.670
New Transformer.324793527_1862767258 phases=3 windings=2 Xhl=3.770
~ wdg=1 bus=node_441849929.1.2.3 conn=delta Kv=13.8 Kva=75.0 %R=0.670
~ wdg=2 bus=node_423191794.1.2.3.4 conn=wye Kv=0.2200 Kva=75.0 %R=0.670
New Transformer.324793816_325276452 phases=3 windings=2 Xhl=3.770
~ wdg=1 bus=node_431128654.1.2.3 conn=delta Kv=13.8 Kva=75.0 %R=0.670
~ wdg=2 bus=node_418119342.1.2.3.4 conn=wye Kv=0.2200 Kva=75.0 %R=0.670
New Transformer.324931763_325275821 phases=3 windings=2 Xhl=3.770
~ wdg=1 bus=node_441848630.1.2.3 conn=delta Kv=13.8 Kva=75.0 %R=0.670
~ wdg=2 bus=node_423194707.1.2.3.4 conn=wye Kv=0.2200 Kva=75.0 %R=0.670
New Transformer.324931640_325324051 phases=3 windings=2 Xhl=3.770
~ wdg=1 bus=node_424286385.1.2.3 conn=delta Kv=13.8 Kva=75.0 %R=0.670
~ wdg=2 bus=node_423192823.1.2.3.4 conn=wye Kv=0.2200 Kva=75.0 %R=0.670
New Transformer.324931658_1378395662 phases=3 windings=2 Xhl=3.770
~ wdg=1 bus=node_424417277.1.2.3 conn=delta Kv=13.8 Kva=75.0 %R=0.670
~ wdg=2 bus=node_423204894.1.2.3.4 conn=wye Kv=0.2200 Kva=75.0 %R=0.670
New Transformer.324931683_932862912 phases=3 windings=2 Xhl=3.770
~ wdg=1 bus=node_424699410.1.2.3 conn=delta Kv=13.8 Kva=75.0 %R=0.670
~ wdg=2 bus=node_423177070.1.2.3.4 conn=wye Kv=0.2200 Kva=75.0 %R=0.670
New Transformer.324931720_325275840 phases=3 windings=2 Xhl=3.770
~ wdg=1 bus=node_441671747.1.2.3 conn=delta Kv=13.8 Kva=75.0 %R=0.670
~ wdg=2 bus=node_423194368.1.2.3.4 conn=wye Kv=0.2200 Kva=75.0 %R=0.670
New Transformer.324931804_1923321248 phases=3 windings=2 Xhl=3.770
~ wdg=1 bus=node_439003335.1.2.3 conn=delta Kv=13.8 Kva=75.0 %R=0.670
~ wdg=2 bus=node_419095629.1.2.3.4 conn=wye Kv=0.2200 Kva=75.0 %R=0.670
New Transformer.324932134_325346500 phases=3 windings=2 Xhl=3.770
~ wdg=1 bus=node_442015815.1.2.3 conn=delta Kv=13.8 Kva=75.0 %R=0.670
~ wdg=2 bus=node_413148581.1.2.3.4 conn=wye Kv=0.2200 Kva=75.0 %R=0.670
New Transformer.1224846343_1224846342 phases=3 windings=2 Xhl=3.770
~ wdg=1 bus=node_1521785108.1.2.3 conn=delta Kv=13.8 Kva=75.0 %R=0.670
~ wdg=2 bus=node_423194101.1.2.3.4 conn=wye Kv=0.2200 Kva=75.0 %R=0.670
New Transformer.324932585_1095154653 phases=3 windings=2 Xhl=3.770
~ wdg=1 bus=node_441849979.1.2.3 conn=delta Kv=13.8 Kva=75.0 %R=0.670
~ wdg=2 bus=node_448438214.1.2.3.4 conn=wye Kv=0.2200 Kva=75.0 %R=0.670
New Transformer.324932255_325377793 phases=3 windings=2 Xhl=3.770
~ wdg=1 bus=node_440651366.1.2.3 conn=delta Kv=13.8 Kva=75.0 %R=0.670
~ wdg=2 bus=node_423235721.1.2.3.4 conn=wye Kv=0.2200 Kva=75.0 %R=0.670
New Transformer.324932346_325377661 phases=3 windings=2 Xhl=3.770
~ wdg=1 bus=node_424287966.1.2.3 conn=delta Kv=13.8 Kva=75.0 %R=0.670
~ wdg=2 bus=node_418827639.1.2.3.4 conn=wye Kv=0.2200 Kva=75.0 %R=0.670
New Transformer.324932658_325343985 phases=3 windings=2 Xhl=3.770
~ wdg=1 bus=node_424473416.1.2.3 conn=delta Kv=13.8 Kva=75.0 %R=0.670
~ wdg=2 bus=node_470503236.1.2.3.4 conn=wye Kv=0.2200 Kva=75.0 %R=0.670
New Transformer.901388043_901388042 phases=3 windings=2 Xhl=3.770
~ wdg=1 bus=node_1195745945.1.2.3 conn=delta Kv=13.8 Kva=75.0 %R=0.670
~ wdg=2 bus=node_1195745955.1.2.3.4 conn=wye Kv=0.2200 Kva=75.0 %R=0.670
New Transformer.324933318_325346540 phases=3 windings=2 Xhl=3.770
~ wdg=1 bus=node_441672206.1.2.3 conn=delta Kv=13.8 Kva=75.0 %R=0.670
~ wdg=2 bus=node_418117125.1.2.3.4 conn=wye Kv=0.2200 Kva=75.0 %R=0.670
New Transformer.324932924_1064963529 phases=3 windings=2 Xhl=3.770
~ wdg=1 bus=node_441671602.1.2.3 conn=delta Kv=13.8 Kva=75.0 %R=0.670
~ wdg=2 bus=node_418119012.1.2.3.4 conn=wye Kv=0.2200 Kva=75.0 %R=0.670
New Transformer.324933292_325375043 phases=3 windings=2 Xhl=3.770
~ wdg=1 bus=node_431816256.1.2.3 conn=delta Kv=13.8 Kva=75.0 %R=0.670
~ wdg=2 bus=node_448196247.1.2.3.4 conn=wye Kv=0.2200 Kva=75.0 %R=0.670
New Transformer.324934696_325346542 phases=3 windings=2 Xhl=3.770
~ wdg=1 bus=node_431128469.1.2.3 conn=delta Kv=13.8 Kva=75.0 %R=0.670
~ wdg=2 bus=node_418117842.1.2.3.4 conn=wye Kv=0.2200 Kva=75.0 %R=0.670
New Transformer.324934058_325346538 phases=3 windings=2 Xhl=3.770
~ wdg=1 bus=node_439003020.1.2.3 conn=delta Kv=13.8 Kva=75.0 %R=0.670
~ wdg=2 bus=node_418125166.1.2.3.4 conn=wye Kv=0.2200 Kva=75.0 %R=0.670
New Transformer.324934328_325063564 phases=3 windings=2 Xhl=3.770
~ wdg=1 bus=node_440651207.1.2.3 conn=delta Kv=13.8 Kva=75.0 %R=0.670
~ wdg=2 bus=node_404939013.1.2.3.4 conn=wye Kv=0.2200 Kva=75.0 %R=0.670
New Transformer.324934240_325374121 phases=3 windings=2 Xhl=3.770
~ wdg=1 bus=node_441850084.1.2.3 conn=delta Kv=13.8 Kva=75.0 %R=0.670
~ wdg=2 bus=node_423194359.1.2.3.4 conn=wye Kv=0.2200 Kva=75.0 %R=0.670
New Transformer.324934608_325278459 phases=3 windings=2 Xhl=3.770
~ wdg=1 bus=node_441670782.1.2.3 conn=delta Kv=13.8 Kva=75.0 %R=0.670
~ wdg=2 bus=node_423192949.1.2.3.4 conn=wye Kv=0.2200 Kva=75.0 %R=0.670
New Transformer.324934999_325325856 phases=3 windings=2 Xhl=3.770
~ wdg=1 bus=node_442018998.1.2.3 conn=delta Kv=13.8 Kva=75.0 %R=0.670
~ wdg=2 bus=node_423194044.1.2.3.4 conn=wye Kv=0.2200 Kva=75.0 %R=0.670
New Transformer.324935004_1929779453 phases=3 windings=2 Xhl=3.770
~ wdg=1 bus=node_424616004.1.2.3 conn=delta Kv=13.8 Kva=75.0 %R=0.670
~ wdg=2 bus=node_423219197.1.2.3.4 conn=wye Kv=0.2200 Kva=75.0 %R=0.670
New Transformer.324935173_325375366 phases=3 windings=2 Xhl=3.770
~ wdg=1 bus=node_441849659.1.2.3 conn=delta Kv=13.8 Kva=75.0 %R=0.670
~ wdg=2 bus=node_423702365.1.2.3.4 conn=wye Kv=0.2200 Kva=75.0 %R=0.670
New Transformer.324935261_325275837 phases=3 windings=2 Xhl=3.770
~ wdg=1 bus=node_439004068.1.2.3 conn=delta Kv=13.8 Kva=75.0 %R=0.670
~ wdg=2 bus=node_423192685.1.2.3.4 conn=wye Kv=0.2200 Kva=75.0 %R=0.670
New Transformer.324934760_1531824390 phases=3 windings=2 Xhl=3.770
~ wdg=1 bus=node_441671412.1.2.3 conn=delta Kv=13.8 Kva=75.0 %R=0.670
~ wdg=2 bus=node_418119456.1.2.3.4 conn=wye Kv=0.2200 Kva=75.0 %R=0.670
New Transformer.324934732_1697929299 phases=3 windings=2 Xhl=3.770
~ wdg=1 bus=node_439002333.1.2.3 conn=delta Kv=13.8 Kva=75.0 %R=0.670
~ wdg=2 bus=node_419937568.1.2.3.4 conn=wye Kv=0.2200 Kva=75.0 %R=0.670
New Transformer.324755329_1547016695 phases=3 windings=2 Xhl=3.770
~ wdg=1 bus=node_438158407.1.2.3 conn=delta Kv=13.8 Kva=75.0 %R=0.670
~ wdg=2 bus=node_413149262.1.2.3.4 conn=wye Kv=0.2200 Kva=75.0 %R=0.670
New Transformer.1318816794_1964114292 phases=3 windings=2 Xhl=3.770
~ wdg=1 bus=node_1616013611.1.2.3 conn=delta Kv=13.8 Kva=75.0 %R=0.670
~ wdg=2 bus=node_1616013622.1.2.3.4 conn=wye Kv=0.2200 Kva=75.0 %R=0.670
New Transformer.324935557_325323988 phases=3 windings=2 Xhl=3.770
~ wdg=1 bus=node_439003070.1.2.3 conn=delta Kv=13.8 Kva=75.0 %R=0.670
~ wdg=2 bus=node_418117032.1.2.3.4 conn=wye Kv=0.2200 Kva=75.0 %R=0.670
New Transformer.324935391_325275787 phases=3 windings=2 Xhl=3.770
~ wdg=1 bus=node_441671996.1.2.3 conn=delta Kv=13.8 Kva=75.0 %R=0.670
~ wdg=2 bus=node_418117122.1.2.3.4 conn=wye Kv=0.2200 Kva=75.0 %R=0.670
New Transformer.324935326_325279057 phases=3 windings=2 Xhl=3.770
~ wdg=1 bus=node_431295396.1.2.3 conn=delta Kv=13.8 Kva=75.0 %R=0.670
~ wdg=2 bus=node_423398670.1.2.3.4 conn=wye Kv=0.2200 Kva=75.0 %R=0.670
New Transformer.1332776570_1332776569 phases=3 windings=2 Xhl=3.770
~ wdg=1 bus=node_1628393134.1.2.3 conn=delta Kv=13.8 Kva=75.0 %R=0.670
~ wdg=2 bus=node_1628393058.1.2.3.4 conn=wye Kv=0.2200 Kva=75.0 %R=0.670
New Transformer.324485666_325278460 phases=3 windings=2 Xhl=3.770
~ wdg=1 bus=node_424415458.1.2.3 conn=delta Kv=13.8 Kva=75.0 %R=0.670
~ wdg=2 bus=node_423194356.1.2.3.4 conn=wye Kv=0.2200 Kva=75.0 %R=0.670
New Transformer.324485700_325276580 phases=3 windings=2 Xhl=3.770
~ wdg=1 bus=node_440651166.1.2.3 conn=delta Kv=13.8 Kva=75.0 %R=0.670
~ wdg=2 bus=node_404938881.1.2.3.4 conn=wye Kv=0.2200 Kva=75.0 %R=0.670
New Transformer.324485701_325325761 phases=3 windings=2 Xhl=3.770
~ wdg=1 bus=node_441670922.1.2.3 conn=delta Kv=13.8 Kva=75.0 %R=0.670
~ wdg=2 bus=node_418118637.1.2.3.4 conn=wye Kv=0.2200 Kva=75.0 %R=0.670
New Transformer.324635086_325325821 phases=3 windings=2 Xhl=3.770
~ wdg=1 bus=node_424229401.1.2.3 conn=delta Kv=13.8 Kva=75.0 %R=0.670
~ wdg=2 bus=node_423177583.1.2.3.4 conn=wye Kv=0.2200 Kva=75.0 %R=0.670
New Transformer.324635364_325325833 phases=3 windings=2 Xhl=3.770
~ wdg=1 bus=node_431128574.1.2.3 conn=delta Kv=13.8 Kva=75.0 %R=0.670
~ wdg=2 bus=node_423194941.1.2.3.4 conn=wye Kv=0.2200 Kva=75.0 %R=0.670
New Transformer.324635232_325323989 phases=3 windings=2 Xhl=3.770
~ wdg=1 bus=node_431816377.1.2.3 conn=delta Kv=13.8 Kva=75.0 %R=0.670
~ wdg=2 bus=node_418119006.1.2.3.4 conn=wye Kv=0.2200 Kva=75.0 %R=0.670
New Transformer.959099722_959099721 phases=3 windings=2 Xhl=3.770
~ wdg=1 bus=node_1221240046.1.2.3 conn=delta Kv=13.8 Kva=75.0 %R=0.670
~ wdg=2 bus=node_448293988.1.2.3.4 conn=wye Kv=0.2200 Kva=75.0 %R=0.670
New Transformer.959099712_959099711 phases=3 windings=2 Xhl=3.770
~ wdg=1 bus=node_1221240183.1.2.3 conn=delta Kv=13.8 Kva=75.0 %R=0.670
~ wdg=2 bus=node_1221239653.1.2.3.4 conn=wye Kv=0.2200 Kva=75.0 %R=0.670
New Transformer.324485400_325325765 phases=3 windings=2 Xhl=3.770
~ wdg=1 bus=node_441671782.1.2.3 conn=delta Kv=13.8 Kva=75.0 %R=0.670
~ wdg=2 bus=node_418115622.1.2.3.4 conn=wye Kv=0.2200 Kva=75.0 %R=0.670
New Transformer.324756728_325644331 phases=3 windings=2 Xhl=3.770
~ wdg=1 bus=node_430869397.1.2.3 conn=delta Kv=13.8 Kva=75.0 %R=0.670
~ wdg=2 bus=node_410620501.1.2.3.4 conn=wye Kv=0.2200 Kva=75.0 %R=0.670
New Transformer.324484915_325344616 phases=3 windings=2 Xhl=3.770
~ wdg=1 bus=node_440651707.1.2.3 conn=delta Kv=13.8 Kva=75.0 %R=0.670
~ wdg=2 bus=node_423416939.1.2.3.4 conn=wye Kv=0.2200 Kva=75.0 %R=0.670
New Transformer.324485046_456297621 phases=3 windings=2 Xhl=3.770
~ wdg=1 bus=node_431128570.1.2.3 conn=delta Kv=13.8 Kva=75.0 %R=0.670
~ wdg=2 bus=node_418987136.1.2.3.4 conn=wye Kv=0.2200 Kva=75.0 %R=0.670
New Transformer.324635548_1063593746 phases=3 windings=2 Xhl=3.770
~ wdg=1 bus=node_441851169.1.2.3 conn=delta Kv=13.8 Kva=75.0 %R=0.670
~ wdg=2 bus=node_423192025.1.2.3.4 conn=wye Kv=0.2200 Kva=75.0 %R=0.670
New Transformer.324635947_325346611 phases=3 windings=2 Xhl=3.770
~ wdg=1 bus=node_424285932.1.2.3 conn=delta Kv=13.8 Kva=75.0 %R=0.670
~ wdg=2 bus=node_423192775.1.2.3.4 conn=wye Kv=0.2200 Kva=75.0 %R=0.670
New Transformer.324789804_325344313 phases=3 windings=2 Xhl=3.770
~ wdg=1 bus=node_431129139.1.2.3 conn=delta Kv=13.8 Kva=75.0 %R=0.670
~ wdg=2 bus=node_513182983.1.2.3.4 conn=wye Kv=0.2200 Kva=75.0 %R=0.670
New Transformer.324485968_325345201 phases=3 windings=2 Xhl=3.770
~ wdg=1 bus=node_439003240.1.2.3 conn=delta Kv=13.8 Kva=75.0 %R=0.670
~ wdg=2 bus=node_419939215.1.2.3.4 conn=wye Kv=0.2200 Kva=75.0 %R=0.670
New Transformer.324789674_325396525 phases=3 windings=2 Xhl=3.770
~ wdg=1 bus=node_431296182.1.2.3 conn=delta Kv=13.8 Kva=75.0 %R=0.670
~ wdg=2 bus=node_423192007.1.2.3.4 conn=wye Kv=0.2200 Kva=75.0 %R=0.670
New Transformer.1440684285_1440684284 phases=3 windings=2 Xhl=3.770
~ wdg=1 bus=node_1736983198.1.2.3 conn=delta Kv=13.8 Kva=75.0 %R=0.670
~ wdg=2 bus=node_1736983184.1.2.3.4 conn=wye Kv=0.2200 Kva=75.0 %R=0.670
New Transformer.324485810_325278458 phases=3 windings=2 Xhl=3.770
~ wdg=1 bus=node_441670896.1.2.3 conn=delta Kv=13.8 Kva=75.0 %R=0.670
~ wdg=2 bus=node_423194308.1.2.3.4 conn=wye Kv=0.2200 Kva=75.0 %R=0.670
New Transformer.324485519_325275836 phases=3 windings=2 Xhl=3.770
~ wdg=1 bus=node_424472881.1.2.3 conn=delta Kv=13.8 Kva=75.0 %R=0.670
~ wdg=2 bus=node_423192784.1.2.3.4 conn=wye Kv=0.2200 Kva=75.0 %R=0.670
New Transformer.324485529_2036631382 phases=3 windings=2 Xhl=3.770
~ wdg=1 bus=node_432154308.1.2.3 conn=delta Kv=13.8 Kva=75.0 %R=0.670
~ wdg=2 bus=node_423705326.1.2.3.4 conn=wye Kv=0.2200 Kva=75.0 %R=0.670
New Transformer.324485536_325345063 phases=3 windings=2 Xhl=3.770
~ wdg=1 bus=node_431128615.1.2.3 conn=delta Kv=13.8 Kva=75.0 %R=0.670
~ wdg=2 bus=node_419786553.1.2.3.4 conn=wye Kv=0.2200 Kva=75.0 %R=0.670
New Transformer.324636432_2105086309 phases=3 windings=2 Xhl=3.770
~ wdg=1 bus=node_2419334171.1.2.3 conn=delta Kv=13.8 Kva=75.0 %R=0.670
~ wdg=2 bus=node_2419334504.1.2.3.4 conn=wye Kv=0.2200 Kva=75.0 %R=0.670
New Transformer.324636315_2065671674 phases=3 windings=2 Xhl=3.770
~ wdg=1 bus=node_442015776.1.2.3 conn=delta Kv=13.8 Kva=75.0 %R=0.670
~ wdg=2 bus=node_404941299.1.2.3.4 conn=wye Kv=0.2200 Kva=75.0 %R=0.670
New Transformer.324636320_325345145 phases=3 windings=2 Xhl=3.770
~ wdg=1 bus=node_424286161.1.2.3 conn=delta Kv=13.8 Kva=75.0 %R=0.670
~ wdg=2 bus=node_513029605.1.2.3.4 conn=wye Kv=0.2200 Kva=75.0 %R=0.670
New Transformer.324636041_325275962 phases=3 windings=2 Xhl=3.770
~ wdg=1 bus=node_431128600.1.2.3 conn=delta Kv=13.8 Kva=75.0 %R=0.670
~ wdg=2 bus=node_423219884.1.2.3.4 conn=wye Kv=0.2200 Kva=75.0 %R=0.670
New Transformer.324790213_749818334 phases=3 windings=2 Xhl=3.770
~ wdg=1 bus=node_441670872.1.2.3 conn=delta Kv=13.8 Kva=75.0 %R=0.670
~ wdg=2 bus=node_423236954.1.2.3.4 conn=wye Kv=0.2200 Kva=75.0 %R=0.670
New Transformer.324790259_1447533179 phases=3 windings=2 Xhl=3.770
~ wdg=1 bus=node_431128365.1.2.3 conn=delta Kv=13.8 Kva=75.0 %R=0.670
~ wdg=2 bus=node_423693569.1.2.3.4 conn=wye Kv=0.2200 Kva=75.0 %R=0.670
New Transformer.324635965_325377582 phases=3 windings=2 Xhl=3.770
~ wdg=1 bus=node_424229247.1.2.3 conn=delta Kv=13.8 Kva=75.0 %R=0.670
~ wdg=2 bus=node_423177568.1.2.3.4 conn=wye Kv=0.2200 Kva=75.0 %R=0.670
New Transformer.324486246_325275835 phases=3 windings=2 Xhl=3.770
~ wdg=1 bus=node_424285911.1.2.3 conn=delta Kv=13.8 Kva=75.0 %R=0.670
~ wdg=2 bus=node_423192721.1.2.3.4 conn=wye Kv=0.2200 Kva=75.0 %R=0.670
New Transformer.324486309_325324093 phases=3 windings=2 Xhl=3.770
~ wdg=1 bus=node_424612795.1.2.3 conn=delta Kv=13.8 Kva=75.0 %R=0.670
~ wdg=2 bus=node_423206592.1.2.3.4 conn=wye Kv=0.2200 Kva=75.0 %R=0.670
New Transformer.324789866_1433405905 phases=3 windings=2 Xhl=3.770
~ wdg=1 bus=node_440651697.1.2.3 conn=delta Kv=13.8 Kva=75.0 %R=0.670
~ wdg=2 bus=node_1729752023.1.2.3.4 conn=wye Kv=0.2200 Kva=75.0 %R=0.670
New Transformer.324486174_560916632 phases=3 windings=2 Xhl=3.770
~ wdg=1 bus=node_441848994.1.2.3 conn=delta Kv=13.8 Kva=75.0 %R=0.670
~ wdg=2 bus=node_448258981.1.2.3.4 conn=wye Kv=0.2200 Kva=75.0 %R=0.670
New Transformer.981343378_981343377 phases=3 windings=2 Xhl=3.770
~ wdg=1 bus=node_1243330088.1.2.3 conn=delta Kv=13.8 Kva=75.0 %R=0.670
~ wdg=2 bus=node_1243328940.1.2.3.4 conn=wye Kv=0.2200 Kva=75.0 %R=0.670
New Transformer.325035618_325645414 phases=3 windings=2 Xhl=3.770
~ wdg=1 bus=node_438924359.1.2.3 conn=delta Kv=13.8 Kva=75.0 %R=0.670
~ wdg=2 bus=node_409415728.1.2.3.4 conn=wye Kv=0.2200 Kva=75.0 %R=0.670
New Transformer.1954123379_1954123378 phases=3 windings=2 Xhl=3.770
~ wdg=1 bus=node_2271430123.1.2.3 conn=delta Kv=13.8 Kva=75.0 %R=0.670
~ wdg=2 bus=node_2271430035.1.2.3.4 conn=wye Kv=0.2200 Kva=75.0 %R=0.670
New Transformer.324487146_325275957 phases=3 windings=2 Xhl=3.770
~ wdg=1 bus=node_424357511.1.2.3 conn=delta Kv=13.8 Kva=75.0 %R=0.670
~ wdg=2 bus=node_423219086.1.2.3.4 conn=wye Kv=0.2200 Kva=75.0 %R=0.670
New Transformer.324790938_325377524 phases=3 windings=2 Xhl=3.770
~ wdg=1 bus=node_441849039.1.2.3 conn=delta Kv=13.8 Kva=75.0 %R=0.670
~ wdg=2 bus=node_418117833.1.2.3.4 conn=wye Kv=0.2200 Kva=75.0 %R=0.670
New Transformer.324486578_401265716 phases=3 windings=2 Xhl=3.770
~ wdg=1 bus=node_441671386.1.2.3 conn=delta Kv=13.8 Kva=75.0 %R=0.670
~ wdg=2 bus=node_418119459.1.2.3.4 conn=wye Kv=0.2200 Kva=75.0 %R=0.670
New Transformer.324790575_325278416 phases=3 windings=2 Xhl=3.770
~ wdg=1 bus=node_439003418.1.2.3 conn=delta Kv=13.8 Kva=75.0 %R=0.670
~ wdg=2 bus=node_418117839.1.2.3.4 conn=wye Kv=0.2200 Kva=75.0 %R=0.670
New Transformer.324790627_325344239 phases=3 windings=2 Xhl=3.770
~ wdg=1 bus=node_431296193.1.2.3 conn=delta Kv=13.8 Kva=75.0 %R=0.670
~ wdg=2 bus=node_423692138.1.2.3.4 conn=wye Kv=0.2200 Kva=75.0 %R=0.670
New Transformer.324637510_325275788 phases=3 windings=2 Xhl=3.770
~ wdg=1 bus=node_439003365.1.2.3 conn=delta Kv=13.8 Kva=75.0 %R=0.670
~ wdg=2 bus=node_418117044.1.2.3.4 conn=wye Kv=0.2200 Kva=75.0 %R=0.670
New Transformer.324791013_325396680 phases=3 windings=2 Xhl=3.770
~ wdg=1 bus=node_441848615.1.2.3 conn=delta Kv=13.8 Kva=75.0 %R=0.670
~ wdg=2 bus=node_423218126.1.2.3.4 conn=wye Kv=0.2200 Kva=75.0 %R=0.670
New Transformer.324791497_2249008384 phases=3 windings=2 Xhl=3.770
~ wdg=1 bus=node_424358696.1.2.3 conn=delta Kv=13.8 Kva=75.0 %R=0.670
~ wdg=2 bus=node_418859032.1.2.3.4 conn=wye Kv=0.2200 Kva=75.0 %R=0.670
New Transformer.324636919_2545479168 phases=3 windings=2 Xhl=3.770
~ wdg=1 bus=node_424612760.1.2.3 conn=delta Kv=13.8 Kva=75.0 %R=0.670
~ wdg=2 bus=node_423204273.1.2.3.4 conn=wye Kv=0.2200 Kva=75.0 %R=0.670
New Transformer.324487612_325343898 phases=3 windings=2 Xhl=3.770
~ wdg=1 bus=node_424358406.1.2.3 conn=delta Kv=13.8 Kva=75.0 %R=0.670
~ wdg=2 bus=node_423521940.1.2.3.4 conn=wye Kv=0.2200 Kva=75.0 %R=0.670
New Transformer.324487473_325377584 phases=3 windings=2 Xhl=3.770
~ wdg=1 bus=node_424473066.1.2.3 conn=delta Kv=13.8 Kva=75.0 %R=0.670
~ wdg=2 bus=node_423193894.1.2.3.4 conn=wye Kv=0.2200 Kva=75.0 %R=0.670
New Transformer.324791160_2556707989 phases=3 windings=2 Xhl=3.770
~ wdg=1 bus=node_2709295157.1.2.3 conn=delta Kv=13.8 Kva=75.0 %R=0.670
~ wdg=2 bus=node_2709295164.1.2.3.4 conn=wye Kv=0.2200 Kva=75.0 %R=0.670
New Transformer.324638170_325374093 phases=3 windings=2 Xhl=3.770
~ wdg=1 bus=node_424699124.1.2.3 conn=delta Kv=13.8 Kva=75.0 %R=0.670
~ wdg=2 bus=node_423177076.1.2.3.4 conn=wye Kv=0.2200 Kva=75.0 %R=0.670
New Transformer.324637993_325277073 phases=3 windings=2 Xhl=3.770
~ wdg=1 bus=node_441670337.1.2.3 conn=delta Kv=13.8 Kva=75.0 %R=0.670
~ wdg=2 bus=node_419904285.1.2.3.4 conn=wye Kv=0.2200 Kva=75.0 %R=0.670
New Transformer.1728493902_1728493901 phases=3 windings=2 Xhl=3.770
~ wdg=1 bus=node_2054507278.1.2.3 conn=delta Kv=13.8 Kva=75.0 %R=0.670
~ wdg=2 bus=node_2054507264.1.2.3.4 conn=wye Kv=0.2200 Kva=75.0 %R=0.670
New Transformer.324638365_325278448 phases=3 windings=2 Xhl=3.770
~ wdg=1 bus=node_441850999.1.2.3 conn=delta Kv=13.8 Kva=75.0 %R=0.670
~ wdg=2 bus=node_423177088.1.2.3.4 conn=wye Kv=0.2200 Kva=75.0 %R=0.670
New Transformer.324637907_1175435270 phases=3 windings=2 Xhl=3.770
~ wdg=1 bus=node_441850839.1.2.3 conn=delta Kv=13.8 Kva=75.0 %R=0.670
~ wdg=2 bus=node_423192031.1.2.3.4 conn=wye Kv=0.2200 Kva=75.0 %R=0.670
New Transformer.324488191_2012679522 phases=3 windings=2 Xhl=3.770
~ wdg=1 bus=node_441848330.1.2.3 conn=delta Kv=13.8 Kva=75.0 %R=0.670
~ wdg=2 bus=node_418117041.1.2.3.4 conn=wye Kv=0.2200 Kva=75.0 %R=0.670
New Transformer.324791973_325344539 phases=3 windings=2 Xhl=3.770
~ wdg=1 bus=node_441849598.1.2.3 conn=delta Kv=13.8 Kva=75.0 %R=0.670
~ wdg=2 bus=node_423390275.1.2.3.4 conn=wye Kv=0.2200 Kva=75.0 %R=0.670
New Transformer.324487941_325374110 phases=3 windings=2 Xhl=3.770
~ wdg=1 bus=node_442171097.1.2.3 conn=delta Kv=13.8 Kva=75.0 %R=0.670
~ wdg=2 bus=node_423176341.1.2.3.4 conn=wye Kv=0.2200 Kva=75.0 %R=0.670
New Transformer.324488405_325325822 phases=3 windings=2 Xhl=3.770
~ wdg=1 bus=node_424229417.1.2.3 conn=delta Kv=13.8 Kva=75.0 %R=0.670
~ wdg=2 bus=node_423192583.1.2.3.4 conn=wye Kv=0.2200 Kva=75.0 %R=0.670
New Transformer.1717664501_1717664500 phases=3 windings=2 Xhl=3.770
~ wdg=1 bus=node_2043755179.1.2.3 conn=delta Kv=13.8 Kva=75.0 %R=0.670
~ wdg=2 bus=node_2043755190.1.2.3.4 conn=wye Kv=0.2200 Kva=75.0 %R=0.670
New Transformer.324791669_325323987 phases=3 windings=2 Xhl=3.770
~ wdg=1 bus=node_441671537.1.2.3 conn=delta Kv=13.8 Kva=75.0 %R=0.670
~ wdg=2 bus=node_418119501.1.2.3.4 conn=wye Kv=0.2200 Kva=75.0 %R=0.670
New Transformer.324637378_325278464 phases=3 windings=2 Xhl=3.770
~ wdg=1 bus=node_424473331.1.2.3 conn=delta Kv=13.8 Kva=75.0 %R=0.670
~ wdg=2 bus=node_423192073.1.2.3.4 conn=wye Kv=0.2200 Kva=75.0 %R=0.670
New Transformer.324638860_562793306 phases=3 windings=2 Xhl=3.770
~ wdg=1 bus=node_442019378.1.2.3 conn=delta Kv=13.8 Kva=75.0 %R=0.670
~ wdg=2 bus=node_404938701.1.2.3.4 conn=wye Kv=0.2200 Kva=75.0 %R=0.670
New Transformer.324638749_325346616 phases=3 windings=2 Xhl=3.770
~ wdg=1 bus=node_424229218.1.2.3 conn=delta Kv=13.8 Kva=75.0 %R=0.670
~ wdg=2 bus=node_448177135.1.2.3.4 conn=wye Kv=0.2200 Kva=75.0 %R=0.670
New Transformer.324488559_1898501943 phases=3 windings=2 Xhl=3.770
~ wdg=1 bus=node_728889380.1.2.3 conn=delta Kv=13.8 Kva=75.0 %R=0.670
~ wdg=2 bus=node_2714781154.1.2.3.4 conn=wye Kv=0.2200 Kva=75.0 %R=0.670
New Transformer.324488619_325396458 phases=3 windings=2 Xhl=3.770
~ wdg=1 bus=node_424418083.1.2.3 conn=delta Kv=13.8 Kva=75.0 %R=0.670
~ wdg=2 bus=node_418116513.1.2.3.4 conn=wye Kv=0.2200 Kva=75.0 %R=0.670
New Transformer.1527676381_1527676380 phases=3 windings=2 Xhl=3.770
~ wdg=1 bus=node_431128595.1.2.3 conn=delta Kv=13.8 Kva=75.0 %R=0.670
~ wdg=2 bus=node_1843409915.1.2.3.4 conn=wye Kv=0.2200 Kva=75.0 %R=0.670
New Transformer.1517325980_1517325979 phases=3 windings=2 Xhl=3.770
~ wdg=1 bus=node_1848605695.1.2.3 conn=delta Kv=13.8 Kva=75.0 %R=0.670
~ wdg=2 bus=node_1908650146.1.2.3.4 conn=wye Kv=0.2200 Kva=75.0 %R=0.670
New Transformer.324488503_325275783 phases=3 windings=2 Xhl=3.770
~ wdg=1 bus=node_439002777.1.2.3 conn=delta Kv=13.8 Kva=75.0 %R=0.670
~ wdg=2 bus=node_418124179.1.2.3.4 conn=wye Kv=0.2200 Kva=75.0 %R=0.670
New Transformer.324488758_325322201 phases=3 windings=2 Xhl=3.770
~ wdg=1 bus=node_424354946.1.2.3 conn=delta Kv=13.8 Kva=75.0 %R=0.670
~ wdg=2 bus=node_420215026.1.2.3.4 conn=wye Kv=0.2200 Kva=75.0 %R=0.670
New Transformer.324638188_325376088 phases=3 windings=2 Xhl=3.770
~ wdg=1 bus=node_431129164.1.2.3 conn=delta Kv=13.8 Kva=75.0 %R=0.670
~ wdg=2 bus=node_423194365.1.2.3.4 conn=wye Kv=0.2200 Kva=75.0 %R=0.670
New Transformer.2020541789_2020541788 phases=3 windings=2 Xhl=3.770
~ wdg=1 bus=node_2337554940.1.2.3 conn=delta Kv=13.8 Kva=75.0 %R=0.670
~ wdg=2 bus=node_423425109.1.2.3.4 conn=wye Kv=0.2200 Kva=75.0 %R=0.670
New Transformer.2027485159_2027485158 phases=3 windings=2 Xhl=3.770
~ wdg=1 bus=node_2344528357.1.2.3 conn=delta Kv=13.8 Kva=75.0 %R=0.670
~ wdg=2 bus=node_2344528341.1.2.3.4 conn=wye Kv=0.2200 Kva=75.0 %R=0.670
New Transformer.575353082_1038448224 phases=3 windings=2 Xhl=3.770
~ wdg=1 bus=node_843440407.1.2.3 conn=delta Kv=13.8 Kva=75.0 %R=0.670
~ wdg=2 bus=node_843440386.1.2.3.4 conn=wye Kv=0.2200 Kva=75.0 %R=0.670
New Transformer.1578204304_1578204303 phases=3 windings=2 Xhl=3.770
~ wdg=1 bus=node_1897944407.1.2.3 conn=delta Kv=13.8 Kva=75.0 %R=0.670
~ wdg=2 bus=node_1897944265.1.2.3.4 conn=wye Kv=0.2200 Kva=75.0 %R=0.670
New Transformer.324235040_325063756 phases=3 windings=2 Xhl=3.770
~ wdg=1 bus=node_424615000.1.2.3 conn=delta Kv=13.8 Kva=75.0 %R=0.670
~ wdg=2 bus=node_423540416.1.2.3.4 conn=wye Kv=0.2200 Kva=75.0 %R=0.670
New Transformer.324235222_325374122 phases=3 windings=2 Xhl=3.770
~ wdg=1 bus=node_441850344.1.2.3 conn=delta Kv=13.8 Kva=75.0 %R=0.670
~ wdg=2 bus=node_423192931.1.2.3.4 conn=wye Kv=0.2200 Kva=75.0 %R=0.670
New Transformer.324235620_325325838 phases=3 windings=2 Xhl=3.770
~ wdg=1 bus=node_441670517.1.2.3 conn=delta Kv=13.8 Kva=75.0 %R=0.670
~ wdg=2 bus=node_423194914.1.2.3.4 conn=wye Kv=0.2200 Kva=75.0 %R=0.670
New Transformer.324235561_325322664 phases=3 windings=2 Xhl=3.770
~ wdg=1 bus=node_441672211.1.2.3 conn=delta Kv=13.8 Kva=75.0 %R=0.670
~ wdg=2 bus=node_419979031.1.2.3.4 conn=wye Kv=0.2200 Kva=75.0 %R=0.670
New Transformer.2408745271_2408745270 phases=3 windings=2 Xhl=3.770
~ wdg=1 bus=node_2573214363.1.2.3 conn=delta Kv=13.8 Kva=75.0 %R=0.670
~ wdg=2 bus=node_2573214377.1.2.3.4 conn=wye Kv=0.2200 Kva=75.0 %R=0.670
New Transformer.2536676580_2536676579 phases=3 windings=2 Xhl=3.770
~ wdg=1 bus=node_2767492314.1.2.3 conn=delta Kv=13.8 Kva=75.0 %R=0.670
~ wdg=2 bus=node_2767492335.1.2.3.4 conn=wye Kv=0.2200 Kva=75.0 %R=0.670
New Transformer.2335742810_2335742809 phases=3 windings=2 Xhl=3.770
~ wdg=1 bus=node_2549412599.1.2.3 conn=delta Kv=13.8 Kva=75.0 %R=0.670
~ wdg=2 bus=node_2549412609.1.2.3.4 conn=wye Kv=0.2200 Kva=75.0 %R=0.670
New Transformer.2610139258_2610139257 phases=3 windings=2 Xhl=4.960
~ wdg=1 bus=node_2763758839.1.2.3 conn=delta Kv=13.8 Kva=75.0 %R=0.305
~ wdg=2 bus=node_2763758757.1.2.3.4 conn=wye Kv=0.2200 Kva=75.0 %R=0.305
New Transformer.2266180552_2266180551 phases=3 windings=2 Xhl=3.770
~ wdg=1 bus=node_441848970.1.2.3 conn=delta Kv=13.8 Kva=75.0 %R=0.670
~ wdg=2 bus=node_418117584.1.2.3.4 conn=wye Kv=0.2200 Kva=75.0 %R=0.670
New Transformer.2677017550_2677017549 phases=3 windings=2 Xhl=3.770
~ wdg=1 bus=node_2712417442.1.2.3 conn=delta Kv=13.8 Kva=75.0 %R=0.670
~ wdg=2 bus=node_2712417429.1.2.3.4 conn=wye Kv=0.2200 Kva=75.0 %R=0.670
New Transformer.2350969606_2350969605 phases=3 windings=2 Xhl=3.770
~ wdg=1 bus=node_2492014698.1.2.3 conn=delta Kv=13.8 Kva=75.0 %R=0.670
~ wdg=2 bus=node_2492014826.1.2.3.4 conn=wye Kv=0.2200 Kva=75.0 %R=0.670
New Transformer.2707620426_2707620425 phases=3 windings=2 Xhl=3.770
~ wdg=1 bus=node_2891266240.1.2.3 conn=delta Kv=13.8 Kva=75.0 %R=0.670
~ wdg=2 bus=node_2891266251.1.2.3.4 conn=wye Kv=0.2200 Kva=75.0 %R=0.670
New Transformer.325061385_325322692 phases=3 windings=2 Xhl=3.700
~ wdg=1 bus=node_441669743.1.2.3 conn=delta Kv=13.8 Kva=45.0 %R=0.760
~ wdg=2 bus=node_420018711.1.2.3.4 conn=wye Kv=0.2200 Kva=45.0 %R=0.760
New Transformer.325061650_325322596 phases=3 windings=2 Xhl=3.700
~ wdg=1 bus=node_439002163.1.2.3 conn=delta Kv=13.8 Kva=45.0 %R=0.760
~ wdg=2 bus=node_420938277.1.2.3.4 conn=wye Kv=0.2200 Kva=45.0 %R=0.760
New Transformer.325061440_562793364 phases=3 windings=2 Xhl=3.700
~ wdg=1 bus=node_442019327.1.2.3 conn=delta Kv=13.8 Kva=45.0 %R=0.760
~ wdg=2 bus=node_404938584.1.2.3.4 conn=wye Kv=0.2200 Kva=45.0 %R=0.760
New Transformer.325062262_325325824 phases=3 windings=2 Xhl=3.700
~ wdg=1 bus=node_424286191.1.2.3 conn=delta Kv=13.8 Kva=45.0 %R=0.760
~ wdg=2 bus=node_423194095.1.2.3.4 conn=wye Kv=0.2200 Kva=45.0 %R=0.760
New Transformer.325062792_325064024 phases=3 windings=2 Xhl=3.700
~ wdg=1 bus=node_441848645.1.2.3 conn=delta Kv=13.8 Kva=45.0 %R=0.760
~ wdg=2 bus=node_423194947.1.2.3.4 conn=wye Kv=0.2200 Kva=45.0 %R=0.760
New Transformer.325063088_325346597 phases=3 windings=2 Xhl=3.700
~ wdg=1 bus=node_424616069.1.2.3 conn=delta Kv=13.8 Kva=45.0 %R=0.760
~ wdg=2 bus=node_423176866.1.2.3.4 conn=wye Kv=0.2200 Kva=45.0 %R=0.760
New Transformer.325063203_325346555 phases=3 windings=2 Xhl=3.700
~ wdg=1 bus=node_439004738.1.2.3 conn=delta Kv=13.8 Kva=45.0 %R=0.760
~ wdg=2 bus=node_404938695.1.2.3.4 conn=wye Kv=0.2200 Kva=45.0 %R=0.760
New Transformer.1013938541_1013938542 phases=3 windings=2 Xhl=3.700
~ wdg=1 bus=node_1283271022.1.2.3 conn=delta Kv=13.8 Kva=45.0 %R=0.760
~ wdg=2 bus=node_1283271473.1.2.3.4 conn=wye Kv=0.2200 Kva=45.0 %R=0.760
New Transformer.1013938689_1013938690 phases=3 windings=2 Xhl=3.700
~ wdg=1 bus=node_1283271654.1.2.3 conn=delta Kv=13.8 Kva=45.0 %R=0.760
~ wdg=2 bus=node_1283271600.1.2.3.4 conn=wye Kv=0.2200 Kva=45.0 %R=0.760
New Transformer.1013938723_1013938724 phases=3 windings=2 Xhl=3.700
~ wdg=1 bus=node_1283270899.1.2.3 conn=delta Kv=13.8 Kva=45.0 %R=0.760
~ wdg=2 bus=node_1283271168.1.2.3.4 conn=wye Kv=0.2200 Kva=45.0 %R=0.760
New Transformer.325060119_325323951 phases=3 windings=2 Xhl=3.700
~ wdg=1 bus=node_441852483.1.2.3 conn=delta Kv=13.8 Kva=45.0 %R=0.760
~ wdg=2 bus=node_413148731.1.2.3.4 conn=wye Kv=0.2200 Kva=45.0 %R=0.760
New Transformer.1036851263_1036851262 phases=3 windings=2 Xhl=3.700
~ wdg=1 bus=node_1303440132.1.2.3 conn=delta Kv=13.8 Kva=45.0 %R=0.760
~ wdg=2 bus=node_1303439935.1.2.3.4 conn=wye Kv=0.2200 Kva=45.0 %R=0.760
New Transformer.1036851341_1036851340 phases=3 windings=2 Xhl=3.700
~ wdg=1 bus=node_1303440214.1.2.3 conn=delta Kv=13.8 Kva=45.0 %R=0.760
~ wdg=2 bus=node_1303440064.1.2.3.4 conn=wye Kv=0.2200 Kva=45.0 %R=0.760
New Transformer.1042824293_1042824292 phases=3 windings=2 Xhl=3.700
~ wdg=1 bus=node_1309400109.1.2.3 conn=delta Kv=13.8 Kva=45.0 %R=0.760
~ wdg=2 bus=node_1309400119.1.2.3.4 conn=wye Kv=0.2200 Kva=45.0 %R=0.760
New Transformer.2210156170_2210156169 phases=3 windings=2 Xhl=3.700
~ wdg=1 bus=node_441850299.1.2.3 conn=delta Kv=13.8 Kva=45.0 %R=0.760
~ wdg=2 bus=node_447745435.1.2.3.4 conn=wye Kv=0.2200 Kva=45.0 %R=0.760
New Transformer.325060530_325375365 phases=3 windings=2 Xhl=3.700
~ wdg=1 bus=node_442172120.1.2.3 conn=delta Kv=13.8 Kva=45.0 %R=0.760
~ wdg=2 bus=node_423705662.1.2.3.4 conn=wye Kv=0.2200 Kva=45.0 %R=0.760
New Transformer.325060857_325397511 phases=3 windings=2 Xhl=3.700
~ wdg=1 bus=node_424287341.1.2.3 conn=delta Kv=13.8 Kva=45.0 %R=0.760
~ wdg=2 bus=node_513885560.1.2.3.4 conn=wye Kv=0.2200 Kva=45.0 %R=0.760
New Transformer.325061078_325377508 phases=3 windings=2 Xhl=3.700
~ wdg=1 bus=node_424227700.1.2.3 conn=delta Kv=13.8 Kva=45.0 %R=0.760
~ wdg=2 bus=node_404938959.1.2.3.4 conn=wye Kv=0.2200 Kva=45.0 %R=0.760
New Transformer.1054782879_1054782878 phases=3 windings=2 Xhl=3.700
~ wdg=1 bus=node_1321504795.1.2.3 conn=delta Kv=13.8 Kva=45.0 %R=0.760
~ wdg=2 bus=node_1321504831.1.2.3.4 conn=wye Kv=0.2200 Kva=45.0 %R=0.760
New Transformer.2345503101_2345503100 phases=3 windings=2 Xhl=3.700
~ wdg=1 bus=node_2541473022.1.2.3 conn=delta Kv=13.8 Kva=45.0 %R=0.760
~ wdg=2 bus=node_2541473011.1.2.3.4 conn=wye Kv=0.2200 Kva=45.0 %R=0.760
New Transformer.1118501436_1118501435 phases=3 windings=2 Xhl=3.700
~ wdg=1 bus=node_1387641106.1.2.3 conn=delta Kv=13.8 Kva=45.0 %R=0.760
~ wdg=2 bus=node_1387641030.1.2.3.4 conn=wye Kv=0.2200 Kva=45.0 %R=0.760
New Transformer.659498289_659498288 phases=3 windings=2 Xhl=3.700
~ wdg=1 bus=node_441850338.1.2.3 conn=delta Kv=13.8 Kva=45.0 %R=0.760
~ wdg=2 bus=node_447768418.1.2.3.4 conn=wye Kv=0.2200 Kva=45.0 %R=0.760
New Transformer.675897305_675897304 phases=3 windings=2 Xhl=3.700
~ wdg=1 bus=node_948180039.1.2.3 conn=delta Kv=13.8 Kva=45.0 %R=0.760
~ wdg=2 bus=node_948180028.1.2.3.4 conn=wye Kv=0.2200 Kva=45.0 %R=0.760
New Transformer.324792749_325375285 phases=3 windings=2 Xhl=3.700
~ wdg=1 bus=node_441849769.1.2.3 conn=delta Kv=13.8 Kva=45.0 %R=0.760
~ wdg=2 bus=node_423390416.1.2.3.4 conn=wye Kv=0.2200 Kva=45.0 %R=0.760
New Transformer.324792827_325275817 phases=3 windings=2 Xhl=3.700
~ wdg=1 bus=node_439002672.1.2.3 conn=delta Kv=13.8 Kva=45.0 %R=0.760
~ wdg=2 bus=node_423194692.1.2.3.4 conn=wye Kv=0.2200 Kva=45.0 %R=0.760
New Transformer.324792951_325325767 phases=3 windings=2 Xhl=3.700
~ wdg=1 bus=node_441672127.1.2.3 conn=delta Kv=13.8 Kva=45.0 %R=0.760
~ wdg=2 bus=node_418117743.1.2.3.4 conn=wye Kv=0.2200 Kva=45.0 %R=0.760
New Transformer.324792838_325375426 phases=3 windings=2 Xhl=3.700
~ wdg=1 bus=node_441670477.1.2.3 conn=delta Kv=13.8 Kva=45.0 %R=0.760
~ wdg=2 bus=node_423715262.1.2.3.4 conn=wye Kv=0.2200 Kva=45.0 %R=0.760
New Transformer.324793680_1116296030 phases=3 windings=2 Xhl=3.700
~ wdg=1 bus=node_442016791.1.2.3 conn=delta Kv=13.8 Kva=45.0 %R=0.760
~ wdg=2 bus=node_423174943.1.2.3.4 conn=wye Kv=0.2200 Kva=45.0 %R=0.760
New Transformer.324793450_325344218 phases=3 windings=2 Xhl=3.700
~ wdg=1 bus=node_441671787.1.2.3 conn=delta Kv=13.8 Kva=45.0 %R=0.760
~ wdg=2 bus=node_418125589.1.2.3.4 conn=wye Kv=0.2200 Kva=45.0 %R=0.760
New Transformer.324793355_325276975 phases=3 windings=2 Xhl=3.700
~ wdg=1 bus=node_442172944.1.2.3 conn=delta Kv=13.8 Kva=45.0 %R=0.760
~ wdg=2 bus=node_423439967.1.2.3.4 conn=wye Kv=0.2200 Kva=45.0 %R=0.760
New Transformer.324793366_325344225 phases=3 windings=2 Xhl=3.700
~ wdg=1 bus=node_431128405.1.2.3 conn=delta Kv=13.8 Kva=45.0 %R=0.760
~ wdg=2 bus=node_419938441.1.2.3.4 conn=wye Kv=0.2200 Kva=45.0 %R=0.760
New Transformer.741423612_741423611 phases=3 windings=2 Xhl=3.700
~ wdg=1 bus=node_1014968608.1.2.3 conn=delta Kv=13.8 Kva=45.0 %R=0.760
~ wdg=2 bus=node_418358263.1.2.3.4 conn=wye Kv=0.2200 Kva=45.0 %R=0.760
New Transformer.324931848_325343628 phases=3 windings=2 Xhl=3.700
~ wdg=1 bus=node_441669268.1.2.3 conn=delta Kv=13.8 Kva=45.0 %R=0.760
~ wdg=2 bus=node_418358269.1.2.3.4 conn=wye Kv=0.2200 Kva=45.0 %R=0.760
New Transformer.324931650_325325820 phases=3 windings=2 Xhl=3.700
~ wdg=1 bus=node_441670377.1.2.3 conn=delta Kv=13.8 Kva=45.0 %R=0.760
~ wdg=2 bus=node_423177559.1.2.3.4 conn=wye Kv=0.2200 Kva=45.0 %R=0.760
New Transformer.324931926_632935600 phases=3 windings=2 Xhl=3.700
~ wdg=1 bus=node_441849758.1.2.3 conn=delta Kv=13.8 Kva=45.0 %R=0.760
~ wdg=2 bus=node_423390485.1.2.3.4 conn=wye Kv=0.2200 Kva=45.0 %R=0.760
New Transformer.324793769_325325881 phases=3 windings=2 Xhl=3.700
~ wdg=1 bus=node_424354941.1.2.3 conn=delta Kv=13.8 Kva=45.0 %R=0.760
~ wdg=2 bus=node_418827636.1.2.3.4 conn=wye Kv=0.2200 Kva=45.0 %R=0.760
New Transformer.747993374_747993373 phases=3 windings=2 Xhl=3.700
~ wdg=1 bus=node_1021448176.1.2.3 conn=delta Kv=13.8 Kva=45.0 %R=0.760
~ wdg=2 bus=node_1021448161.1.2.3.4 conn=wye Kv=0.2200 Kva=45.0 %R=0.760
New Transformer.324932140_325374037 phases=3 windings=2 Xhl=3.700
~ wdg=1 bus=node_441671482.1.2.3 conn=delta Kv=13.8 Kva=45.0 %R=0.760
~ wdg=2 bus=node_418125586.1.2.3.4 conn=wye Kv=0.2200 Kva=45.0 %R=0.760
New Transformer.324932353_325377525 phases=3 windings=2 Xhl=3.700
~ wdg=1 bus=node_441849049.1.2.3 conn=delta Kv=13.8 Kva=45.0 %R=0.760
~ wdg=2 bus=node_418117848.1.2.3.4 conn=wye Kv=0.2200 Kva=45.0 %R=0.760
New Transformer.324932723_325324239 phases=3 windings=2 Xhl=3.700
~ wdg=1 bus=node_441851254.1.2.3 conn=delta Kv=13.8 Kva=45.0 %R=0.760
~ wdg=2 bus=node_423701870.1.2.3.4 conn=wye Kv=0.2200 Kva=45.0 %R=0.760
New Transformer.324932578_325396570 phases=3 windings=2 Xhl=3.700
~ wdg=1 bus=node_424415903.1.2.3 conn=delta Kv=13.8 Kva=45.0 %R=0.760
~ wdg=2 bus=node_418827633.1.2.3.4 conn=wye Kv=0.2200 Kva=45.0 %R=0.760
New Transformer.324933262_325377758 phases=3 windings=2 Xhl=3.700
~ wdg=1 bus=node_441671731.1.2.3 conn=delta Kv=13.8 Kva=45.0 %R=0.760
~ wdg=2 bus=node_423220025.1.2.3.4 conn=wye Kv=0.2200 Kva=45.0 %R=0.760
New Transformer.324932905_325397740 phases=3 windings=2 Xhl=3.700
~ wdg=1 bus=node_441848525.1.2.3 conn=delta Kv=13.8 Kva=45.0 %R=0.760
~ wdg=2 bus=node_423236066.1.2.3.4 conn=wye Kv=0.2200 Kva=45.0 %R=0.760
New Transformer.324933599_325322138 phases=3 windings=2 Xhl=3.700
~ wdg=1 bus=node_431128409.1.2.3 conn=delta Kv=13.8 Kva=45.0 %R=0.760
~ wdg=2 bus=node_423431365.1.2.3.4 conn=wye Kv=0.2200 Kva=45.0 %R=0.760
New Transformer.324933600_325344360 phases=3 windings=2 Xhl=3.700
~ wdg=1 bus=node_441669988.1.2.3 conn=delta Kv=13.8 Kva=45.0 %R=0.760
~ wdg=2 bus=node_423715274.1.2.3.4 conn=wye Kv=0.2200 Kva=45.0 %R=0.760
New Transformer.324933490_325325880 phases=3 windings=2 Xhl=3.700
~ wdg=1 bus=node_431815137.1.2.3 conn=delta Kv=13.8 Kva=45.0 %R=0.760
~ wdg=2 bus=node_418858867.1.2.3.4 conn=wye Kv=0.2200 Kva=45.0 %R=0.760
New Transformer.324934357_325396459 phases=3 windings=2 Xhl=3.700
~ wdg=1 bus=node_441848940.1.2.3 conn=delta Kv=13.8 Kva=45.0 %R=0.760
~ wdg=2 bus=node_418116525.1.2.3.4 conn=wye Kv=0.2200 Kva=45.0 %R=0.760
New Transformer.324934645_325346613 phases=3 windings=2 Xhl=3.700
~ wdg=1 bus=node_439002688.1.2.3 conn=delta Kv=13.8 Kva=45.0 %R=0.760
~ wdg=2 bus=node_423204861.1.2.3.4 conn=wye Kv=0.2200 Kva=45.0 %R=0.760
New Transformer.324934524_2574215066 phases=3 windings=2 Xhl=3.700
~ wdg=1 bus=node_424227829.1.2.3 conn=delta Kv=13.8 Kva=45.0 %R=0.760
~ wdg=2 bus=node_405615095.1.2.3.4 conn=wye Kv=0.2200 Kva=45.0 %R=0.760
New Transformer.324934202_325374035 phases=3 windings=2 Xhl=3.700
~ wdg=1 bus=node_440651551.1.2.3 conn=delta Kv=13.8 Kva=45.0 %R=0.760
~ wdg=2 bus=node_418124173.1.2.3.4 conn=wye Kv=0.2200 Kva=45.0 %R=0.760
New Transformer.324935161_325325794 phases=3 windings=2 Xhl=3.700
~ wdg=1 bus=node_424543396.1.2.3 conn=delta Kv=13.8 Kva=45.0 %R=0.760
~ wdg=2 bus=node_423177334.1.2.3.4 conn=wye Kv=0.2200 Kva=45.0 %R=0.760
New Transformer.1303731577_1303731576 phases=3 windings=2 Xhl=3.700
~ wdg=1 bus=node_1602301918.1.2.3 conn=delta Kv=13.8 Kva=45.0 %R=0.760
~ wdg=2 bus=node_1602301929.1.2.3.4 conn=wye Kv=0.2200 Kva=45.0 %R=0.760
New Transformer.1633407743_1633407742 phases=3 windings=2 Xhl=3.700
~ wdg=1 bus=node_1972904110.1.2.3 conn=delta Kv=13.8 Kva=45.0 %R=0.760
~ wdg=2 bus=node_447966611.1.2.3.4 conn=wye Kv=0.2200 Kva=45.0 %R=0.760
New Transformer.324935206_325397254 phases=3 windings=2 Xhl=3.700
~ wdg=1 bus=node_440651452.1.2.3 conn=delta Kv=13.8 Kva=45.0 %R=0.760
~ wdg=2 bus=node_423434851.1.2.3.4 conn=wye Kv=0.2200 Kva=45.0 %R=0.760
New Transformer.324934745_325396608 phases=3 windings=2 Xhl=3.700
~ wdg=1 bus=node_424289376.1.2.3 conn=delta Kv=13.8 Kva=45.0 %R=0.760
~ wdg=2 bus=node_404941338.1.2.3.4 conn=wye Kv=0.2200 Kva=45.0 %R=0.760
New Transformer.324935272_325324046 phases=3 windings=2 Xhl=3.700
~ wdg=1 bus=node_439003778.1.2.3 conn=delta Kv=13.8 Kva=45.0 %R=0.760
~ wdg=2 bus=node_469685555.1.2.3.4 conn=wye Kv=0.2200 Kva=45.0 %R=0.760
New Transformer.324935223_325275855 phases=3 windings=2 Xhl=3.700
~ wdg=1 bus=node_424541701.1.2.3 conn=delta Kv=13.8 Kva=45.0 %R=0.760
~ wdg=2 bus=node_423204954.1.2.3.4 conn=wye Kv=0.2200 Kva=45.0 %R=0.760
New Transformer.324935486_996259628 phases=3 windings=2 Xhl=3.700
~ wdg=1 bus=node_1276813303.1.2.3 conn=delta Kv=13.8 Kva=45.0 %R=0.760
~ wdg=2 bus=node_423176380.1.2.3.4 conn=wye Kv=0.2200 Kva=45.0 %R=0.760
New Transformer.951589762_951589761 phases=3 windings=2 Xhl=3.700
~ wdg=1 bus=node_1214048027.1.2.3 conn=delta Kv=13.8 Kva=45.0 %R=0.760
~ wdg=2 bus=node_1214047852.1.2.3.4 conn=wye Kv=0.2200 Kva=45.0 %R=0.760
New Transformer.324935321_325278595 phases=3 windings=2 Xhl=3.700
~ wdg=1 bus=node_440651392.1.2.3 conn=delta Kv=13.8 Kva=45.0 %R=0.760
~ wdg=2 bus=node_423234179.1.2.3.4 conn=wye Kv=0.2200 Kva=45.0 %R=0.760
New Transformer.324485239_2318528124 phases=3 windings=2 Xhl=3.700
~ wdg=1 bus=node_441671642.1.2.3 conn=delta Kv=13.8 Kva=45.0 %R=0.760
~ wdg=2 bus=node_418125151.1.2.3.4 conn=wye Kv=0.2200 Kva=45.0 %R=0.760
New Transformer.957936045_957936044 phases=3 windings=2 Xhl=3.700
~ wdg=1 bus=node_1220136700.1.2.3 conn=delta Kv=13.8 Kva=45.0 %R=0.760
~ wdg=2 bus=node_1220136712.1.2.3.4 conn=wye Kv=0.2200 Kva=45.0 %R=0.760
New Transformer.324905213_325621318 phases=3 windings=2 Xhl=3.700
~ wdg=1 bus=node_436058757.1.2.3 conn=delta Kv=13.8 Kva=45.0 %R=0.760
~ wdg=2 bus=node_413148944.1.2.3.4 conn=wye Kv=0.2200 Kva=45.0 %R=0.760
New Transformer.324789640_325278428 phases=3 windings=2 Xhl=3.700
~ wdg=1 bus=node_424358320.1.2.3 conn=delta Kv=13.8 Kva=45.0 %R=0.760
~ wdg=2 bus=node_418125775.1.2.3.4 conn=wye Kv=0.2200 Kva=45.0 %R=0.760
New Transformer.324635018_325344230 phases=3 windings=2 Xhl=3.700
~ wdg=1 bus=node_431129294.1.2.3 conn=delta Kv=13.8 Kva=45.0 %R=0.760
~ wdg=2 bus=node_419870960.1.2.3.4 conn=wye Kv=0.2200 Kva=45.0 %R=0.760
New Transformer.324634994_2554526364 phases=3 windings=2 Xhl=3.700
~ wdg=1 bus=node_424471871.1.2.3 conn=delta Kv=13.8 Kva=45.0 %R=0.760
~ wdg=2 bus=node_423177949.1.2.3.4 conn=wye Kv=0.2200 Kva=45.0 %R=0.760
New Transformer.324635369_325375189 phases=3 windings=2 Xhl=3.700
~ wdg=1 bus=node_441670927.1.2.3 conn=delta Kv=13.8 Kva=45.0 %R=0.760
~ wdg=2 bus=node_418118739.1.2.3.4 conn=wye Kv=0.2200 Kva=45.0 %R=0.760
New Transformer.324485364_325275749 phases=3 windings=2 Xhl=3.700
~ wdg=1 bus=node_424541371.1.2.3 conn=delta Kv=13.8 Kva=45.0 %R=0.760
~ wdg=2 bus=node_404938533.1.2.3.4 conn=wye Kv=0.2200 Kva=45.0 %R=0.760
New Transformer.324635047_325397754 phases=3 windings=2 Xhl=3.700
~ wdg=1 bus=node_431129234.1.2.3 conn=delta Kv=13.8 Kva=45.0 %R=0.760
~ wdg=2 bus=node_423698960.1.2.3.4 conn=wye Kv=0.2200 Kva=45.0 %R=0.760
New Transformer.324485275_1073761955 phases=3 windings=2 Xhl=3.700
~ wdg=1 bus=node_441671376.1.2.3 conn=delta Kv=13.8 Kva=45.0 %R=0.760
~ wdg=2 bus=node_418119453.1.2.3.4 conn=wye Kv=0.2200 Kva=45.0 %R=0.760
New Transformer.324635679_325345205 phases=3 windings=2 Xhl=3.700
~ wdg=1 bus=node_441850979.1.2.3 conn=delta Kv=13.8 Kva=45.0 %R=0.760
~ wdg=2 bus=node_423697937.1.2.3.4 conn=wye Kv=0.2200 Kva=45.0 %R=0.760
New Transformer.324635576_325397143 phases=3 windings=2 Xhl=3.700
~ wdg=1 bus=node_424415273.1.2.3 conn=delta Kv=13.8 Kva=45.0 %R=0.760
~ wdg=2 bus=node_423380998.1.2.3.4 conn=wye Kv=0.2200 Kva=45.0 %R=0.760
New Transformer.324635773_325377689 phases=3 windings=2 Xhl=3.700
~ wdg=1 bus=node_439003908.1.2.3 conn=delta Kv=13.8 Kva=45.0 %R=0.760
~ wdg=2 bus=node_423204285.1.2.3.4 conn=wye Kv=0.2200 Kva=45.0 %R=0.760
New Transformer.324635775_325396598 phases=3 windings=2 Xhl=3.700
~ wdg=1 bus=node_424418253.1.2.3 conn=delta Kv=13.8 Kva=45.0 %R=0.760
~ wdg=2 bus=node_423233825.1.2.3.4 conn=wye Kv=0.2200 Kva=45.0 %R=0.760
New Transformer.324635601_325275923 phases=3 windings=2 Xhl=3.700
~ wdg=1 bus=node_434103045.1.2.3 conn=delta Kv=13.8 Kva=45.0 %R=0.760
~ wdg=2 bus=node_423192592.1.2.3.4 conn=wye Kv=0.2200 Kva=45.0 %R=0.760
New Transformer.324635798_1944241614 phases=3 windings=2 Xhl=3.700
~ wdg=1 bus=node_424416038.1.2.3 conn=delta Kv=13.8 Kva=45.0 %R=0.760
~ wdg=2 bus=node_423191521.1.2.3.4 conn=wye Kv=0.2200 Kva=45.0 %R=0.760
New Transformer.1934004720_1934004719 phases=3 windings=2 Xhl=3.700
~ wdg=1 bus=node_442172149.1.2.3 conn=delta Kv=13.8 Kva=45.0 %R=0.760
~ wdg=2 bus=node_447920871.1.2.3.4 conn=wye Kv=0.2200 Kva=45.0 %R=0.760
New Transformer.1438588947_1438588946 phases=3 windings=2 Xhl=3.700
~ wdg=1 bus=node_1734832070.1.2.3 conn=delta Kv=13.8 Kva=45.0 %R=0.760
~ wdg=2 bus=node_1734832090.1.2.3.4 conn=wye Kv=0.2200 Kva=45.0 %R=0.760
New Transformer.324485735_1284764800 phases=3 windings=2 Xhl=3.700
~ wdg=1 bus=node_431129199.1.2.3 conn=delta Kv=13.8 Kva=45.0 %R=0.760
~ wdg=2 bus=node_423694952.1.2.3.4 conn=wye Kv=0.2200 Kva=45.0 %R=0.760
New Transformer.324636434_325377591 phases=3 windings=2 Xhl=3.700
~ wdg=1 bus=node_439002653.1.2.3 conn=delta Kv=13.8 Kva=45.0 %R=0.760
~ wdg=2 bus=node_423192898.1.2.3.4 conn=wye Kv=0.2200 Kva=45.0 %R=0.760
New Transformer.324636285_325396397 phases=3 windings=2 Xhl=3.700
~ wdg=1 bus=node_424699835.1.2.3 conn=delta Kv=13.8 Kva=45.0 %R=0.760
~ wdg=2 bus=node_413148392.1.2.3.4 conn=wye Kv=0.2200 Kva=45.0 %R=0.760
New Transformer.324636510_325275841 phases=3 windings=2 Xhl=3.700
~ wdg=1 bus=node_424286350.1.2.3 conn=delta Kv=13.8 Kva=45.0 %R=0.760
~ wdg=2 bus=node_423192589.1.2.3.4 conn=wye Kv=0.2200 Kva=45.0 %R=0.760
New Transformer.324636055_562127634 phases=3 windings=2 Xhl=3.700
~ wdg=1 bus=node_442172075.1.2.3 conn=delta Kv=13.8 Kva=45.0 %R=0.760
~ wdg=2 bus=node_423471783.1.2.3.4 conn=wye Kv=0.2200 Kva=45.0 %R=0.760
New Transformer.501079891_501079890 phases=3 windings=2 Xhl=3.700
~ wdg=1 bus=node_771288507.1.2.3 conn=delta Kv=13.8 Kva=45.0 %R=0.760
~ wdg=2 bus=node_1735548955.1.2.3.4 conn=wye Kv=0.2200 Kva=45.0 %R=0.760
New Transformer.324790320_1342969993 phases=3 windings=2 Xhl=3.700
~ wdg=1 bus=node_441669678.1.2.3 conn=delta Kv=13.8 Kva=45.0 %R=0.760
~ wdg=2 bus=node_418125769.1.2.3.4 conn=wye Kv=0.2200 Kva=45.0 %R=0.760
New Transformer.324789754_325324193 phases=3 windings=2 Xhl=3.700
~ wdg=1 bus=node_440650902.1.2.3 conn=delta Kv=13.8 Kva=45.0 %R=0.760
~ wdg=2 bus=node_413172861.1.2.3.4 conn=wye Kv=0.2200 Kva=45.0 %R=0.760
New Transformer.324789776_325275897 phases=3 windings=2 Xhl=3.700
~ wdg=1 bus=node_442017204.1.2.3 conn=delta Kv=13.8 Kva=45.0 %R=0.760
~ wdg=2 bus=node_423205047.1.2.3.4 conn=wye Kv=0.2200 Kva=45.0 %R=0.760
New Transformer.324790071_325345271 phases=3 windings=2 Xhl=3.700
~ wdg=1 bus=node_441672181.1.2.3 conn=delta Kv=13.8 Kva=45.0 %R=0.760
~ wdg=2 bus=node_420052858.1.2.3.4 conn=wye Kv=0.2200 Kva=45.0 %R=0.760
New Transformer.324789826_2631951805 phases=3 windings=2 Xhl=3.700
~ wdg=1 bus=node_441671247.1.2.3 conn=delta Kv=13.8 Kva=45.0 %R=0.760
~ wdg=2 bus=node_418119339.1.2.3.4 conn=wye Kv=0.2200 Kva=45.0 %R=0.760
New Transformer.324486121_325377776 phases=3 windings=2 Xhl=3.700
~ wdg=1 bus=node_441669127.1.2.3 conn=delta Kv=13.8 Kva=45.0 %R=0.760
~ wdg=2 bus=node_418136420.1.2.3.4 conn=wye Kv=0.2200 Kva=45.0 %R=0.760
New Transformer.324486413_325375337 phases=3 windings=2 Xhl=3.700
~ wdg=1 bus=node_441849819.1.2.3 conn=delta Kv=13.8 Kva=45.0 %R=0.760
~ wdg=2 bus=node_423694091.1.2.3.4 conn=wye Kv=0.2200 Kva=45.0 %R=0.760
New Transformer.981343619_981343618 phases=3 windings=2 Xhl=3.700
~ wdg=1 bus=node_1243329606.1.2.3 conn=delta Kv=13.8 Kva=45.0 %R=0.760
~ wdg=2 bus=node_1243328839.1.2.3.4 conn=wye Kv=0.2200 Kva=45.0 %R=0.760
New Transformer.981343503_981343502 phases=3 windings=2 Xhl=3.700
~ wdg=1 bus=node_1243329974.1.2.3 conn=delta Kv=13.8 Kva=45.0 %R=0.760
~ wdg=2 bus=node_1243328561.1.2.3.4 conn=wye Kv=0.2200 Kva=45.0 %R=0.760
New Transformer.981343587_981343586 phases=3 windings=2 Xhl=3.700
~ wdg=1 bus=node_1243329732.1.2.3 conn=delta Kv=13.8 Kva=45.0 %R=0.760
~ wdg=2 bus=node_1243329253.1.2.3.4 conn=wye Kv=0.2200 Kva=45.0 %R=0.760
New Transformer.324790980_325397155 phases=3 windings=2 Xhl=3.700
~ wdg=1 bus=node_440651277.1.2.3 conn=delta Kv=13.8 Kva=45.0 %R=0.760
~ wdg=2 bus=node_470392519.1.2.3.4 conn=wye Kv=0.2200 Kva=45.0 %R=0.760
New Transformer.324487189_325374892 phases=3 windings=2 Xhl=3.700
~ wdg=1 bus=node_441669612.1.2.3 conn=delta Kv=13.8 Kva=45.0 %R=0.760
~ wdg=2 bus=node_405611747.1.2.3.4 conn=wye Kv=0.2200 Kva=45.0 %R=0.760
New Transformer.324790960_325375325 phases=3 windings=2 Xhl=3.700
~ wdg=1 bus=node_441850419.1.2.3 conn=delta Kv=13.8 Kva=45.0 %R=0.760
~ wdg=2 bus=node_423707291.1.2.3.4 conn=wye Kv=0.2200 Kva=45.0 %R=0.760
New Transformer.324487042_325374239 phases=3 windings=2 Xhl=3.700
~ wdg=1 bus=node_424418907.1.2.3 conn=delta Kv=13.8 Kva=45.0 %R=0.760
~ wdg=2 bus=node_446026144.1.2.3.4 conn=wye Kv=0.2200 Kva=45.0 %R=0.760
New Transformer.324487091_325346537 phases=3 windings=2 Xhl=3.700
~ wdg=1 bus=node_441671852.1.2.3 conn=delta Kv=13.8 Kva=45.0 %R=0.760
~ wdg=2 bus=node_418125160.1.2.3.4 conn=wye Kv=0.2200 Kva=45.0 %R=0.760
New Transformer.324486658_325377580 phases=3 windings=2 Xhl=3.700
...